<?xml version="1.0" encoding="UTF-8"?>

<!-- generated on 09/22/22 23:41:18 by Eclipse SUMO netedit Version 1.8.0
<configuration xmlns:xsi="http://www.w3.org/2001/XMLSchema-instance" xsi:noNamespaceSchemaLocation="http://sumo.dlr.de/xsd/netconvertConfiguration.xsd">

    <input>
        <sumo-net-file value="D:\CIERCOM\SEMESTRE10\Archivos%20TESIS\TESIS%20SUMO\ibarraCentro.net.xml"/>
    </input>

    <output>
        <output-file value="D:\CIERCOM\SEMESTRE10\Archivos%20TESIS\TESIS%20SUMO\ibarraCentro.net.xml"/>
    </output>

    <processing>
        <geometry.min-radius.fix.railways value="false"/>
        <geometry.max-grade.fix value="false"/>
        <offset.disable-normalization value="true"/>
        <lefthand value="false"/>
    </processing>

    <junctions>
        <no-turnarounds value="true"/>
        <junctions.corner-detail value="5"/>
        <junctions.limit-turn-speed value="5.5"/>
        <rectangular-lane-cut value="false"/>
    </junctions>

    <pedestrian>
        <walkingareas value="false"/>
    </pedestrian>

    <report>
        <aggregate-warnings value="5"/>
    </report>

</configuration>
-->

<net version="1.6" junctionCornerDetail="5" limitTurnSpeed="5.50" xmlns:xsi="http://www.w3.org/2001/XMLSchema-instance" xsi:noNamespaceSchemaLocation="http://sumo.dlr.de/xsd/net_file.xsd">

    <location netOffset="-815275.20,-36425.84" convBoundary="824.17,0.00,6151.38,7182.43" origBoundary="-78.167803,0.329142,-78.112598,0.394050" projParameter="+proj=utm +zone=17 +ellps=WGS84 +datum=WGS84 +units=m +no_defs"/>

    <type id="highway.bridleway" priority="1" numLanes="1" speed="2.78" allow="pedestrian" oneway="1" width="2.00"/>
    <type id="highway.bus_guideway" priority="1" numLanes="1" speed="27.78" allow="bus" oneway="1"/>
    <type id="highway.cycleway" priority="1" numLanes="1" speed="8.33" allow="bicycle" oneway="1" width="1.00"/>
    <type id="highway.footway" priority="1" numLanes="1" speed="2.78" allow="pedestrian" oneway="1" width="2.00"/>
    <type id="highway.ford" priority="1" numLanes="1" speed="2.78" allow="army" oneway="1"/>
    <type id="highway.living_street" priority="2" numLanes="1" speed="2.78" disallow="tram rail_urban rail rail_electric rail_fast ship" oneway="1"/>
    <type id="highway.motorway" priority="14" numLanes="2" speed="39.44" allow="private emergency authority army vip passenger hov taxi bus coach delivery truck trailer motorcycle evehicle custom1 custom2" oneway="1"/>
    <type id="highway.motorway_link" priority="9" numLanes="1" speed="22.22" allow="private emergency authority army vip passenger hov taxi bus coach delivery truck trailer motorcycle evehicle custom1 custom2" oneway="1"/>
    <type id="highway.path" priority="1" numLanes="1" speed="2.78" allow="pedestrian bicycle" oneway="1" width="2.00"/>
    <type id="highway.pedestrian" priority="1" numLanes="1" speed="2.78" allow="pedestrian" oneway="1" width="2.00"/>
    <type id="highway.primary" priority="12" numLanes="2" speed="27.78" disallow="tram rail_urban rail rail_electric rail_fast ship" oneway="1"/>
    <type id="highway.primary_link" priority="7" numLanes="1" speed="22.22" disallow="tram rail_urban rail rail_electric rail_fast ship" oneway="1"/>
    <type id="highway.raceway" priority="15" numLanes="2" speed="83.33" allow="vip" oneway="1"/>
    <type id="highway.residential" priority="3" numLanes="1" speed="13.89" disallow="tram rail_urban rail rail_electric rail_fast ship" oneway="1"/>
    <type id="highway.secondary" priority="11" numLanes="1" speed="27.78" disallow="tram rail_urban rail rail_electric rail_fast ship" oneway="1"/>
    <type id="highway.secondary_link" priority="6" numLanes="1" speed="22.22" disallow="tram rail_urban rail rail_electric rail_fast ship" oneway="1"/>
    <type id="highway.service" priority="1" numLanes="1" speed="5.56" allow="pedestrian delivery bicycle" oneway="1"/>
    <type id="highway.stairs" priority="1" numLanes="1" speed="1.39" allow="pedestrian" oneway="1" width="2.00"/>
    <type id="highway.step" priority="1" numLanes="1" speed="1.39" allow="pedestrian" oneway="1" width="2.00"/>
    <type id="highway.steps" priority="1" numLanes="1" speed="1.39" allow="pedestrian" oneway="1" width="2.00"/>
    <type id="highway.tertiary" priority="10" numLanes="1" speed="22.22" disallow="tram rail_urban rail rail_electric rail_fast ship" oneway="1"/>
    <type id="highway.tertiary_link" priority="5" numLanes="1" speed="22.22" disallow="tram rail_urban rail rail_electric rail_fast ship" oneway="1"/>
    <type id="highway.track" priority="1" numLanes="1" speed="5.56" allow="pedestrian motorcycle moped bicycle" oneway="1"/>
    <type id="highway.trunk" priority="13" numLanes="2" speed="27.78" disallow="pedestrian bicycle tram rail_urban rail rail_electric rail_fast ship" oneway="1"/>
    <type id="highway.trunk_link" priority="8" numLanes="1" speed="22.22" disallow="pedestrian bicycle tram rail_urban rail rail_electric rail_fast ship" oneway="1"/>
    <type id="highway.unclassified" priority="4" numLanes="1" speed="13.89" disallow="tram rail_urban rail rail_electric rail_fast ship" oneway="1"/>
    <type id="highway.unsurfaced" priority="1" numLanes="1" speed="8.33" disallow="tram rail_urban rail rail_electric rail_fast ship" oneway="1"/>
    <type id="railway.highspeed" priority="21" numLanes="1" speed="69.44" allow="rail_fast" oneway="1"/>
    <type id="railway.light_rail" priority="19" numLanes="1" speed="27.78" allow="rail_urban" oneway="1"/>
    <type id="railway.preserved" priority="16" numLanes="1" speed="27.78" allow="rail" oneway="1"/>
    <type id="railway.rail" priority="20" numLanes="1" speed="44.44" allow="rail" oneway="1"/>
    <type id="railway.subway" priority="18" numLanes="1" speed="27.78" allow="rail_urban" oneway="1"/>
    <type id="railway.tram" priority="17" numLanes="1" speed="13.89" allow="tram" oneway="1"/>

    <edge id=":1108484878_0" function="internal">
        <lane id=":1108484878_0_0" index="0" disallow="tram rail_urban rail rail_electric rail_fast ship" speed="6.53" length="8.97" shape="5863.42,1917.12 5861.09,1917.84 5859.53,1919.14 5858.75,1921.02 5858.74,1923.48"/>
    </edge>
    <edge id=":1108484878_1" function="internal">
        <lane id=":1108484878_1_0" index="0" disallow="tram rail_urban rail rail_electric rail_fast ship" speed="13.89" length="11.11" shape="5863.42,1917.12 5852.44,1918.85"/>
    </edge>
    <edge id=":1108484878_2" function="internal">
        <lane id=":1108484878_2_0" index="0" disallow="tram rail_urban rail rail_electric rail_fast ship" speed="13.89" length="11.16" shape="5856.84,1912.48 5858.74,1923.48"/>
    </edge>
    <edge id=":1108484878_3" function="internal">
        <lane id=":1108484878_3_0" index="0" disallow="tram rail_urban rail rail_electric rail_fast ship" speed="6.37" length="4.24" shape="5856.84,1912.48 5856.99,1914.94 5856.39,1916.61"/>
    </edge>
    <edge id=":1108484878_4" function="internal">
        <lane id=":1108484878_4_0" index="0" disallow="tram rail_urban rail rail_electric rail_fast ship" speed="6.37" length="4.68" shape="5856.39,1916.61 5856.31,1916.82 5854.79,1918.12 5852.44,1918.85"/>
    </edge>
    <edge id=":1233142634_0" function="internal">
        <lane id=":1233142634_0_0" index="0" disallow="tram rail_urban rail rail_electric rail_fast ship" speed="13.89" length="9.32" shape="4965.72,2754.02 4964.59,2744.77"/>
    </edge>
    <edge id=":1233142634_1" function="internal">
        <lane id=":1233142634_1_0" index="0" disallow="tram rail_urban rail rail_electric rail_fast ship" speed="7.12" length="2.95" shape="4965.72,2754.02 4966.11,2752.37 4967.03,2751.53"/>
    </edge>
    <edge id=":1233142634_2" function="internal">
        <lane id=":1233142634_2_0" index="0" disallow="tram rail_urban rail rail_electric rail_fast ship" speed="3.65" length="2.34" shape="4965.72,2754.02 4966.39,2752.75 4967.15,2752.27"/>
    </edge>
    <edge id=":1233142634_9" function="internal">
        <lane id=":1233142634_9_0" index="0" disallow="tram rail_urban rail rail_electric rail_fast ship" speed="7.12" length="7.58" shape="4967.03,2751.53 4967.63,2750.98 4970.29,2749.88 4974.09,2749.05"/>
    </edge>
    <edge id=":1233142634_10" function="internal">
        <lane id=":1233142634_10_0" index="0" disallow="tram rail_urban rail rail_electric rail_fast ship" speed="3.65" length="2.34" shape="4967.15,2752.27 4967.99,2752.59 4968.90,2753.70"/>
    </edge>
    <edge id=":1233142634_3" function="internal">
        <lane id=":1233142634_3_0" index="0" disallow="tram rail_urban rail rail_electric rail_fast ship" speed="6.46" length="9.03" shape="4967.76,2744.34 4968.44,2746.73 4969.72,2748.31 4971.60,2749.08 4974.09,2749.05"/>
    </edge>
    <edge id=":1233142634_4" function="internal">
        <lane id=":1233142634_4_0" index="0" disallow="tram rail_urban rail rail_electric rail_fast ship" speed="13.89" length="9.43" shape="4967.76,2744.34 4968.90,2753.70"/>
    </edge>
    <edge id=":1233142634_5" function="internal">
        <lane id=":1233142634_5_0" index="0" disallow="tram rail_urban rail rail_electric rail_fast ship" speed="3.65" length="2.34" shape="4967.76,2744.34 4967.13,2745.64 4966.39,2746.14"/>
    </edge>
    <edge id=":1233142634_11" function="internal">
        <lane id=":1233142634_11_0" index="0" disallow="tram rail_urban rail rail_electric rail_fast ship" speed="3.65" length="2.34" shape="4966.39,2746.14 4965.55,2745.86 4964.59,2744.77"/>
    </edge>
    <edge id=":1233142634_6" function="internal">
        <lane id=":1233142634_6_0" index="0" disallow="tram rail_urban rail rail_electric rail_fast ship" speed="6.61" length="9.23" shape="4959.74,2751.29 4962.15,2750.56 4963.76,2749.23 4964.58,2747.30 4964.59,2744.77"/>
    </edge>
    <edge id=":1233142634_7" function="internal">
        <lane id=":1233142634_7_0" index="0" disallow="tram rail_urban rail rail_electric rail_fast ship" speed="13.89" length="14.52" shape="4959.74,2751.29 4974.09,2749.05"/>
    </edge>
    <edge id=":1233142634_8" function="internal">
        <lane id=":1233142634_8_0" index="0" disallow="tram rail_urban rail rail_electric rail_fast ship" speed="6.82" length="10.43" shape="4959.74,2751.29 4963.60,2750.93 4966.42,2751.22 4968.19,2752.14 4968.90,2753.70"/>
    </edge>
    <edge id=":1233142715_0" function="internal">
        <lane id=":1233142715_0_0" index="0" disallow="tram rail_urban rail rail_electric rail_fast ship" speed="13.89" length="10.90" shape="5063.93,2740.16 5062.19,2729.40"/>
    </edge>
    <edge id=":1233142715_1" function="internal">
        <lane id=":1233142715_1_0" index="0" disallow="tram rail_urban rail rail_electric rail_fast ship" speed="7.26" length="3.87" shape="5063.93,2740.16 5064.10,2737.78 5064.97,2736.58"/>
    </edge>
    <edge id=":1233142715_2" function="internal">
        <lane id=":1233142715_2_0" index="0" disallow="tram rail_urban rail rail_electric rail_fast ship" speed="3.65" length="2.34" shape="5063.93,2740.16 5064.53,2738.84 5065.25,2738.32"/>
    </edge>
    <edge id=":1233142715_9" function="internal">
        <lane id=":1233142715_9_0" index="0" disallow="tram rail_urban rail rail_electric rail_fast ship" speed="7.26" length="7.63" shape="5064.97,2736.58 5065.47,2735.89 5068.02,2734.47 5071.77,2733.53"/>
    </edge>
    <edge id=":1233142715_10" function="internal">
        <lane id=":1233142715_10_0" index="0" disallow="tram rail_urban rail rail_electric rail_fast ship" speed="3.65" length="2.34" shape="5065.25,2738.32 5066.11,2738.59 5067.09,2739.64"/>
    </edge>
    <edge id=":1233142715_3" function="internal">
        <lane id=":1233142715_3_0" index="0" disallow="tram rail_urban rail rail_electric rail_fast ship" speed="6.51" length="9.04" shape="5065.35,2728.89 5066.08,2731.25 5067.40,2732.82 5069.29,2733.57 5071.77,2733.53"/>
    </edge>
    <edge id=":1233142715_4" function="internal">
        <lane id=":1233142715_4_0" index="0" disallow="tram rail_urban rail rail_electric rail_fast ship" speed="13.89" length="10.89" shape="5065.35,2728.89 5067.09,2739.64"/>
    </edge>
    <edge id=":1233142715_5" function="internal">
        <lane id=":1233142715_5_0" index="0" disallow="tram rail_urban rail rail_electric rail_fast ship" speed="3.65" length="2.34" shape="5065.35,2728.89 5064.75,2730.20 5064.02,2730.72"/>
    </edge>
    <edge id=":1233142715_11" function="internal">
        <lane id=":1233142715_11_0" index="0" disallow="tram rail_urban rail rail_electric rail_fast ship" speed="3.65" length="2.34" shape="5064.02,2730.72 5063.17,2730.46 5062.19,2729.40"/>
    </edge>
    <edge id=":1233142715_6" function="internal">
        <lane id=":1233142715_6_0" index="0" disallow="tram rail_urban rail rail_electric rail_fast ship" speed="6.50" length="9.03" shape="5057.54,2735.81 5059.91,2735.08 5061.47,2733.77 5062.23,2731.87 5062.19,2729.40"/>
    </edge>
    <edge id=":1233142715_7" function="internal">
        <lane id=":1233142715_7_0" index="0" disallow="tram rail_urban rail rail_electric rail_fast ship" speed="13.89" length="14.41" shape="5057.54,2735.81 5071.77,2733.53"/>
    </edge>
    <edge id=":1233142715_8" function="internal">
        <lane id=":1233142715_8_0" index="0" disallow="tram rail_urban rail rail_electric rail_fast ship" speed="7.28" length="11.51" shape="5057.54,2735.81 5061.40,2735.53 5064.28,2736.08 5066.17,2737.45 5067.09,2739.64"/>
    </edge>
    <edge id=":1233160943_0" function="internal">
        <lane id=":1233160943_0_0" index="0" disallow="tram rail_urban rail rail_electric rail_fast ship" speed="6.50" length="9.04" shape="5001.68,2379.36 5002.39,2381.73 5003.69,2383.30 5005.58,2384.07 5008.06,2384.04"/>
    </edge>
    <edge id=":1233160943_1" function="internal">
        <lane id=":1233160943_1_0" index="0" disallow="tram rail_urban rail rail_electric rail_fast ship" speed="13.89" length="12.13" shape="5001.68,2379.36 5002.00,2382.64 5001.83,2385.38 5001.18,2388.07 5000.05,2391.19"/>
    </edge>
    <edge id=":1233160943_2" function="internal">
        <lane id=":1233160943_2_0" index="0" disallow="tram rail_urban rail rail_electric rail_fast ship" speed="13.89" length="12.36" shape="4995.84,2385.86 5008.06,2384.04"/>
    </edge>
    <edge id=":1233160943_3" function="internal">
        <lane id=":1233160943_3_0" index="0" disallow="tram rail_urban rail rail_electric rail_fast ship" speed="5.68" length="9.23" shape="4995.84,2385.86 4998.61,2385.84 5000.23,2386.72 5000.71,2388.50 5000.05,2391.19"/>
    </edge>
    <edge id=":1233160945_0" function="internal">
        <lane id=":1233160945_0_0" index="0" disallow="tram rail_urban rail rail_electric rail_fast ship" speed="13.89" length="0.10" shape="4846.68,2684.02 4846.68,2684.02"/>
    </edge>
    <edge id=":1233160946_0" function="internal">
        <lane id=":1233160946_0_0" index="0" disallow="tram rail_urban rail rail_electric rail_fast ship" speed="6.47" length="9.03" shape="4990.16,2431.53 4987.84,2430.63 4985.81,2430.70 4984.05,2431.73 4982.58,2433.72"/>
    </edge>
    <edge id=":1233160946_1" function="internal">
        <lane id=":1233160946_1_0" index="0" disallow="tram rail_urban rail rail_electric rail_fast ship" speed="13.89" length="11.62" shape="4990.16,2431.53 4980.28,2425.41"/>
    </edge>
    <edge id=":1233160946_2" function="internal">
        <lane id=":1233160946_2_0" index="0" disallow="tram rail_urban rail rail_electric rail_fast ship" speed="13.89" length="11.61" shape="4987.45,2423.19 4986.25,2426.18 4985.22,2428.55 4984.08,2430.87 4982.58,2433.72"/>
    </edge>
    <edge id=":1233160946_3" function="internal">
        <lane id=":1233160946_3_0" index="0" disallow="tram rail_urban rail rail_electric rail_fast ship" speed="6.08" length="9.06" shape="4987.45,2423.19 4986.18,2425.42 4984.56,2426.53 4982.59,2426.53 4980.28,2425.41"/>
    </edge>
    <edge id=":1233160947_0" function="internal">
        <lane id=":1233160947_0_0" index="0" disallow="tram rail_urban rail rail_electric rail_fast ship" speed="6.51" length="8.98" shape="4992.16,2279.86 4989.81,2280.59 4988.25,2281.90 4987.48,2283.78 4987.51,2286.24"/>
    </edge>
    <edge id=":1233160947_1" function="internal">
        <lane id=":1233160947_1_0" index="0" disallow="tram rail_urban rail rail_electric rail_fast ship" speed="13.89" length="11.19" shape="4992.16,2279.86 4981.08,2281.45"/>
    </edge>
    <edge id=":1233160947_2" function="internal">
        <lane id=":1233160947_2_0" index="0" disallow="tram rail_urban rail rail_electric rail_fast ship" speed="13.89" length="11.20" shape="4985.74,2275.18 4987.51,2286.24"/>
    </edge>
    <edge id=":1233160947_3" function="internal">
        <lane id=":1233160947_3_0" index="0" disallow="tram rail_urban rail rail_electric rail_fast ship" speed="6.41" length="8.99" shape="4985.74,2275.18 4985.80,2277.66 4985.04,2279.53 4983.47,2280.79 4981.08,2281.45"/>
    </edge>
    <edge id=":1233160951_0" function="internal">
        <lane id=":1233160951_0_0" index="0" disallow="tram rail_urban rail rail_electric rail_fast ship" speed="6.56" length="9.17" shape="4938.84,2514.73 4937.95,2517.11 4938.03,2519.19 4939.06,2520.97 4941.04,2522.46"/>
    </edge>
    <edge id=":1233160951_1" function="internal">
        <lane id=":1233160951_1_0" index="0" disallow="tram rail_urban rail rail_electric rail_fast ship" speed="13.89" length="11.36" shape="4938.84,2514.73 4933.51,2524.76"/>
    </edge>
    <edge id=":1233160951_2" function="internal">
        <lane id=":1233160951_2_0" index="0" disallow="tram rail_urban rail rail_electric rail_fast ship" speed="13.89" length="11.35" shape="4931.33,2516.60 4933.99,2518.35 4936.10,2519.67 4938.26,2520.93 4941.04,2522.46"/>
    </edge>
    <edge id=":1233160951_3" function="internal">
        <lane id=":1233160951_3_0" index="0" disallow="tram rail_urban rail rail_electric rail_fast ship" speed="6.89" length="9.42" shape="4931.33,2516.60 4933.26,2518.30 4934.27,2520.23 4934.35,2522.38 4933.51,2524.76"/>
    </edge>
    <edge id=":1233160952_0" function="internal">
        <lane id=":1233160952_0_0" index="0" disallow="tram rail_urban rail rail_electric rail_fast ship" speed="6.74" length="9.50" shape="4974.03,2168.62 4971.47,2169.49 4969.76,2170.90 4968.93,2172.84 4968.95,2175.31"/>
    </edge>
    <edge id=":1233160952_1" function="internal">
        <lane id=":1233160952_1_0" index="0" disallow="tram rail_urban rail rail_electric rail_fast ship" speed="13.89" length="10.35" shape="4974.03,2168.62 4963.93,2170.73"/>
        <lane id=":1233160952_1_1" index="1" disallow="tram rail_urban rail rail_electric rail_fast ship" speed="13.89" length="10.35" shape="4973.39,2165.48 4963.24,2167.61"/>
    </edge>
    <edge id=":1233160952_3" function="internal">
        <lane id=":1233160952_3_0" index="0" disallow="tram rail_urban rail rail_electric rail_fast ship" speed="13.89" length="14.52" shape="4967.60,2160.86 4967.74,2164.53 4968.01,2168.11 4968.41,2171.67 4968.95,2175.31"/>
    </edge>
    <edge id=":1233160952_4" function="internal">
        <lane id=":1233160952_4_0" index="0" disallow="tram rail_urban rail rail_electric rail_fast ship" speed="6.91" length="8.80" shape="4967.60,2160.86 4967.38,2163.44 4966.58,2165.43 4965.20,2166.82 4963.24,2167.61"/>
    </edge>
    <edge id=":1233160954_0" function="internal">
        <lane id=":1233160954_0_0" index="0" disallow="tram rail_urban rail rail_electric rail_fast ship" speed="6.55" length="9.08" shape="4898.59,2603.67 4896.29,2602.80 4894.25,2602.90 4892.46,2603.94 4890.93,2605.94"/>
    </edge>
    <edge id=":1233160954_1" function="internal">
        <lane id=":1233160954_1_0" index="0" disallow="tram rail_urban rail rail_electric rail_fast ship" speed="13.89" length="11.22" shape="4898.59,2603.67 4888.58,2598.59"/>
    </edge>
    <edge id=":1233160954_2" function="internal">
        <lane id=":1233160954_2_0" index="0" disallow="tram rail_urban rail rail_electric rail_fast ship" speed="13.89" length="11.21" shape="4896.29,2596.10 4890.93,2605.94"/>
    </edge>
    <edge id=":1233160954_3" function="internal">
        <lane id=":1233160954_3_0" index="0" disallow="tram rail_urban rail rail_electric rail_fast ship" speed="6.65" length="9.15" shape="4896.29,2596.10 4894.85,2598.09 4893.09,2599.17 4891.00,2599.34 4888.58,2598.59"/>
    </edge>
    <edge id=":1233172716_0" function="internal">
        <lane id=":1233172716_0_0" index="0" disallow="tram rail_urban rail rail_electric rail_fast ship" speed="6.44" length="9.14" shape="4904.79,1753.34 4906.79,1754.92 4908.78,1755.46 4910.76,1754.97 4912.72,1753.43"/>
    </edge>
    <edge id=":1233172716_1" function="internal">
        <lane id=":1233172716_1_0" index="0" disallow="tram rail_urban rail rail_electric rail_fast ship" speed="13.89" length="12.29" shape="4904.79,1753.34 4907.37,1756.12 4908.97,1758.19 4910.24,1760.48 4911.82,1763.94"/>
        <lane id=":1233172716_1_1" index="1" disallow="tram rail_urban rail rail_electric rail_fast ship" speed="13.89" length="12.29" shape="4902.48,1755.55 4904.84,1758.09 4906.30,1759.99 4907.45,1762.09 4908.90,1765.26"/>
    </edge>
    <edge id=":1233172716_3" function="internal">
        <lane id=":1233172716_3_0" index="0" disallow="tram rail_urban rail rail_electric rail_fast ship" speed="13.89" length="14.97" shape="4901.68,1763.52 4904.56,1761.13 4907.37,1758.66 4910.09,1756.09 4912.72,1753.43"/>
    </edge>
    <edge id=":1233172716_4" function="internal">
        <lane id=":1233172716_4_0" index="0" disallow="tram rail_urban rail rail_electric rail_fast ship" speed="6.03" length="9.07" shape="4901.68,1763.52 4903.90,1762.21 4905.85,1762.06 4907.52,1763.08 4908.90,1765.26"/>
    </edge>
    <edge id=":1233172753_0" function="internal">
        <lane id=":1233172753_0_0" index="0" disallow="tram rail_urban rail rail_electric rail_fast ship" speed="13.89" length="0.27" shape="4820.97,1665.57 4821.22,1665.81"/>
        <lane id=":1233172753_0_1" index="1" disallow="tram rail_urban rail rail_electric rail_fast ship" speed="13.89" length="0.27" shape="4818.77,1667.89 4818.91,1668.02"/>
    </edge>
    <edge id=":1235208968_0" function="internal">
        <lane id=":1235208968_0_0" index="0" disallow="tram rail_urban rail rail_electric rail_fast ship" speed="3.65" length="4.67" shape="4241.46,1848.56 4240.43,1847.56 4240.18,1846.70 4240.71,1845.99 4242.04,1845.42"/>
    </edge>
    <edge id=":1236188314_0" function="internal">
        <lane id=":1236188314_0_0" index="0" disallow="tram rail_urban rail rail_electric rail_fast ship" speed="6.85" length="8.05" shape="5401.86,1787.49 5400.68,1785.51 5399.24,1784.19 5397.54,1783.53 5395.56,1783.53"/>
    </edge>
    <edge id=":1236188314_1" function="internal">
        <lane id=":1236188314_1_0" index="0" disallow="tram rail_urban rail rail_electric rail_fast ship" speed="6.48" length="10.53" shape="5401.86,1787.49 5400.69,1784.09 5400.62,1781.51 5401.65,1779.76 5403.79,1778.83"/>
    </edge>
    <edge id=":1236188314_2" function="internal">
        <lane id=":1236188314_2_0" index="0" disallow="tram rail_urban rail rail_electric rail_fast ship" speed="13.89" length="9.63" shape="5404.39,1781.97 5401.63,1781.99 5399.74,1781.23 5397.84,1780.44 5395.07,1780.37"/>
    </edge>
    <edge id=":1236188314_3" function="internal">
        <lane id=":1236188314_3_0" index="0" disallow="tram rail_urban rail rail_electric rail_fast ship" speed="3.65" length="1.93" shape="5404.39,1781.97 5403.06,1781.41 5402.76,1781.02"/>
    </edge>
    <edge id=":1236188314_4" function="internal">
        <lane id=":1236188314_4_0" index="0" disallow="tram rail_urban rail rail_electric rail_fast ship" speed="3.65" length="2.74" shape="5402.76,1781.02 5402.52,1780.70 5402.76,1779.84 5403.79,1778.83"/>
    </edge>
    <edge id=":1236188315_0" function="internal">
        <lane id=":1236188315_0_0" index="0" disallow="tram rail_urban rail rail_electric rail_fast ship" speed="13.89" length="11.31" shape="5715.71,1735.18 5713.46,1724.10"/>
    </edge>
    <edge id=":1236188315_1" function="internal">
        <lane id=":1236188315_1_0" index="0" disallow="tram rail_urban rail rail_electric rail_fast ship" speed="6.39" length="4.30" shape="5715.71,1735.18 5715.53,1732.70 5716.13,1730.99"/>
    </edge>
    <edge id=":1236188315_4" function="internal">
        <lane id=":1236188315_4_0" index="0" disallow="tram rail_urban rail rail_electric rail_fast ship" speed="6.39" length="4.74" shape="5716.13,1730.99 5716.20,1730.79 5717.72,1729.46 5720.10,1728.70"/>
    </edge>
    <edge id=":1236188315_2" function="internal">
        <lane id=":1236188315_2_0" index="0" disallow="tram rail_urban rail rail_electric rail_fast ship" speed="6.48" length="9.03" shape="5708.95,1730.58 5711.31,1729.82 5712.85,1728.48 5713.57,1726.58 5713.46,1724.10"/>
    </edge>
    <edge id=":1236188315_3" function="internal">
        <lane id=":1236188315_3_0" index="0" disallow="tram rail_urban rail rail_electric rail_fast ship" speed="13.89" length="11.31" shape="5708.95,1730.58 5720.10,1728.70"/>
    </edge>
    <edge id=":1236188318_0" function="internal">
        <lane id=":1236188318_0_0" index="0" disallow="tram rail_urban rail rail_electric rail_fast ship" speed="13.89" length="10.26" shape="5508.47,1767.35 5506.81,1757.23"/>
    </edge>
    <edge id=":1236188318_1" function="internal">
        <lane id=":1236188318_1_0" index="0" disallow="tram rail_urban rail rail_electric rail_fast ship" speed="6.11" length="7.75" shape="5508.47,1767.35 5508.51,1765.30 5509.23,1763.72 5510.63,1762.63 5512.73,1762.02"/>
    </edge>
    <edge id=":1236188318_2" function="internal">
        <lane id=":1236188318_2_0" index="0" disallow="tram rail_urban rail rail_electric rail_fast ship" speed="6.47" length="9.05" shape="5502.28,1763.70 5504.65,1762.94 5506.20,1761.61 5506.92,1759.71 5506.81,1757.23"/>
    </edge>
    <edge id=":1236188318_3" function="internal">
        <lane id=":1236188318_3_0" index="0" disallow="tram rail_urban rail rail_electric rail_fast ship" speed="13.89" length="10.59" shape="5502.28,1763.70 5512.73,1762.02"/>
    </edge>
    <edge id=":1236188319_0" function="internal">
        <lane id=":1236188319_0_0" index="0" disallow="tram rail_urban rail rail_electric rail_fast ship" speed="6.51" length="9.04" shape="5818.42,1706.65 5819.19,1709.00 5820.53,1710.55 5822.44,1711.28 5824.91,1711.20"/>
    </edge>
    <edge id=":1236188319_1" function="internal">
        <lane id=":1236188319_1_0" index="0" disallow="tram rail_urban rail rail_electric rail_fast ship" speed="13.89" length="11.20" shape="5818.42,1706.65 5820.34,1717.68"/>
    </edge>
    <edge id=":1236188319_2" function="internal">
        <lane id=":1236188319_2_0" index="0" disallow="tram rail_urban rail rail_electric rail_fast ship" speed="13.89" length="11.20" shape="5813.87,1713.10 5824.91,1711.20"/>
    </edge>
    <edge id=":1236188319_3" function="internal">
        <lane id=":1236188319_3_0" index="0" disallow="tram rail_urban rail rail_electric rail_fast ship" speed="6.51" length="4.27" shape="5813.87,1713.10 5816.35,1713.04 5818.02,1713.69"/>
    </edge>
    <edge id=":1236188319_4" function="internal">
        <lane id=":1236188319_4_0" index="0" disallow="tram rail_urban rail rail_electric rail_fast ship" speed="6.51" length="4.76" shape="5818.02,1713.69 5818.25,1713.78 5819.58,1715.33 5820.34,1717.68"/>
    </edge>
    <edge id=":1236331159_0" function="internal">
        <lane id=":1236331159_0_0" index="0" disallow="tram rail_urban rail rail_electric rail_fast ship" speed="6.48" length="9.03" shape="5081.69,1740.36 5082.43,1742.73 5083.75,1744.28 5085.65,1745.02 5088.13,1744.94"/>
    </edge>
    <edge id=":1236331159_1" function="internal">
        <lane id=":1236331159_1_0" index="0" disallow="tram rail_urban rail rail_electric rail_fast ship" speed="13.89" length="11.22" shape="5081.69,1740.36 5083.56,1751.43"/>
    </edge>
    <edge id=":1236331159_2" function="internal">
        <lane id=":1236331159_2_0" index="0" disallow="tram rail_urban rail rail_electric rail_fast ship" speed="13.89" length="11.23" shape="5077.04,1746.76 5088.13,1744.94"/>
    </edge>
    <edge id=":1236331159_3" function="internal">
        <lane id=":1236331159_3_0" index="0" disallow="tram rail_urban rail rail_electric rail_fast ship" speed="6.58" length="4.35" shape="5077.04,1746.76 5079.53,1746.73 5081.26,1747.43"/>
    </edge>
    <edge id=":1236331159_4" function="internal">
        <lane id=":1236331159_4_0" index="0" disallow="tram rail_urban rail rail_electric rail_fast ship" speed="6.58" length="4.74" shape="5081.26,1747.43 5081.45,1747.50 5082.79,1749.07 5083.56,1751.43"/>
    </edge>
    <edge id=":1236331180_0" function="internal">
        <lane id=":1236331180_0_0" index="0" allow="pedestrian delivery bicycle" speed="3.65" length="4.67" shape="5119.45,2202.22 5120.06,2200.92 5120.80,2200.41 5121.65,2200.69 5122.61,2201.76"/>
    </edge>
    <edge id=":1236331182_0" function="internal">
        <lane id=":1236331182_0_0" index="0" disallow="tram rail_urban rail rail_electric rail_fast ship" speed="13.89" length="11.17" shape="5192.09,1720.78 5193.88,1731.80"/>
    </edge>
    <edge id=":1236331182_1" function="internal">
        <lane id=":1236331182_1_0" index="0" disallow="tram rail_urban rail rail_electric rail_fast ship" speed="6.49" length="4.33" shape="5187.41,1727.26 5189.88,1727.18 5191.62,1727.84"/>
    </edge>
    <edge id=":1236331182_2" function="internal">
        <lane id=":1236331182_2_0" index="0" disallow="tram rail_urban rail rail_electric rail_fast ship" speed="6.49" length="4.70" shape="5191.62,1727.84 5191.79,1727.90 5193.12,1729.44 5193.88,1731.80"/>
    </edge>