<?xml version="1.0" encoding="iso-8859-1"?>

<!-- generated on 05/07/22 09:35:03 by Eclipse SUMO polyconvert Version 1.8.0
<configuration xmlns:xsi="http://www.w3.org/2001/XMLSchema-instance" xsi:noNamespaceSchemaLocation="http://sumo.dlr.de/xsd/polyconvertConfiguration.xsd">

    <input>
        <net-file value="ibarraCentro.net.xml"/>
        <osm-files value="ibarraCentro.osm"/>
        <type-file value="typemap.xml"/>
    </input>
    
    <output>
        <output-file value="ibarraCentro.poly.xml"/>
    </output>
    
    <processing>
        <poi-layer-offset value="5"/>
    </processing>
    
    <report>
        <xml-validation value="never"/>
    </report>

</configuration>
-->

<additional xmlns:xsi="http://www.w3.org/2001/XMLSchema-instance" xsi:noNamespaceSchemaLocation="http://sumo.dlr.de/xsd/additional_file.xsd">
    <location netOffset="-815275.20,-36425.84" convBoundary="0.00,0.00,6263.20,7182.44" origBoundary="-78.167803,0.329142,-78.111594,0.394050" projParameter="+proj=utm +zone=17 +ellps=WGS84 +datum=WGS84 +units=m +no_defs"/>

    <poly id="1020706158" type="landuse" color="194,194,130" fill="1" layer="-3.00" shape="5560.319754,1782.908390 5557.629433,1763.396274 5595.111237,1757.298597 5560.319754,1782.908390"/>
    <poly id="1020706159" type="landuse" color="194,194,130" fill="1" layer="-3.00" shape="5525.049331,1808.064272 5521.825761,1783.483269 5528.756264,1781.825306 5527.210982,1770.669202 5553.027108,1766.338727 5555.416891,1784.921115 5541.787797,1795.010175 5525.049331,1808.064272"/>
    <poly id="1020706160" type="landuse" color="194,194,130" fill="1" layer="-3.00" shape="5603.120895,1760.831432 5606.222669,1782.922316 5590.322799,1786.115885 5592.825200,1800.725222 5572.023075,1803.928368 5569.276932,1784.803581 5588.533556,1771.163684 5603.120895,1760.831432"/>
    <poly id="1020706161" type="landuse" color="194,194,130" fill="1" layer="-3.00" shape="5558.753354,1804.632635 5557.085484,1793.587161 5534.608217,1809.727239 5558.753354,1804.632635"/>
    <poly id="124128206" type="tourism" color="207,245,201" fill="1" layer="-2.00" shape="5333.495580,2530.631252 5421.885461,2515.474529 5416.902740,2487.462186 5414.845441,2474.922539 5412.654313,2462.803400 5407.905568,2434.735799 5405.714498,2422.417454 5317.324631,2437.574242 5333.495580,2530.631252"/>
    <poly id="124128207" type="tourism" color="207,245,201" fill="1" layer="-2.00" shape="5536.783199,2493.099167 5541.128613,2492.325813 5575.446273,2486.127772 5587.958849,2483.873949 5621.719417,2477.775336 5625.552302,2477.079293 5624.829326,2473.128112 5618.378168,2437.822048 5616.042391,2425.072021 5610.436535,2394.425474 5609.279763,2388.127934 5603.229601,2389.221713 5573.413344,2394.602203 5561.346453,2396.778702 5520.521820,2404.136807 5521.645215,2410.279393 5526.872894,2438.856254 5527.417891,2441.888807 5527.517997,2442.431126 5528.997316,2450.521631 5529.119674,2451.163561 5529.698060,2454.306796 5535.926762,2488.384318 5536.783199,2493.099167"/>
    <poly id="124128208" type="tourism" color="207,245,201" fill="1" layer="-2.00" shape="5733.420920,2415.457714 5749.888847,2412.862023 5748.620810,2406.077488 5747.665092,2398.131002 5745.986468,2386.000923 5742.183432,2362.139045 5725.281002,2364.690341 5730.062628,2394.584096 5731.708476,2404.611412 5733.420920,2415.457714"/>
    <poly id="124128211" type="tourism" color="207,245,201" fill="1" layer="-2.00" shape="5523.754296,1816.707283 5534.974283,1815.006356 5571.809613,1809.771733 5580.823409,1808.667759 5612.856637,1803.874361 5604.749099,1755.729990 5595.111237,1757.298597 5557.629433,1763.396274 5554.866211,1763.838120 5517.172721,1769.968931 5523.754296,1816.707283"/>
    <poly id="124129807" type="parking" color="184,184,179" fill="1" layer="-1.00" shape="4943.202539,2049.813482 4964.510376,2068.545427 5006.559087,2028.871803 5029.992969,2054.100764 5033.882481,2050.328085 5011.496067,2024.523956 5038.632621,2001.014733 4976.070559,1937.382273 4971.284562,1958.175804 4966.351257,1987.070370 4961.377365,2002.883669 4949.246252,2033.214753 4943.202539,2049.813482"/>
    <poly id="125433352" type="landuse" color="194,194,130" fill="1" layer="-3.00" shape="5042.824473,2101.836892 5029.391974,2088.508055 5086.207096,2035.801927 5104.149708,2056.281463 5042.824473,2101.836892"/>
    <poly id="125433352#1" type="shop" color="237,199,255" fill="1" layer="-1.00" shape="5042.824473,2101.836892 5029.391974,2088.508055 5086.207096,2035.801927 5104.149708,2056.281463 5042.824473,2101.836892"/>
    <poly id="125549987" type="amenity" color="237,199,199" fill="1" layer="-1.00" shape="5066.123373,2131.238114 5057.304159,2115.520197 5043.715521,2102.711461 5103.881983,2057.365953 5143.943773,2103.140491 5137.254637,2117.116150 5130.189613,2121.529750 5066.123373,2131.238114"/>
    <poly id="125552249" type="tourism" color="207,245,201" fill="1" layer="-2.00" shape="5605.050483,2912.275826 5609.005426,2913.173497 5610.576063,2914.170027 5612.291286,2915.974502 5615.745354,2915.300487 5610.405876,2888.306147 5600.689916,2890.206656 5605.050483,2912.275826"/>
    <poly id="125553894" type="amenity" color="237,199,199" fill="1" layer="-1.00" shape="4999.830001,1881.257407 5101.830719,1988.328998 5214.144854,1887.608594 5202.010104,1819.841236 5144.116749,1827.714495 5043.861273,1843.487846 4993.700175,1851.263835 4980.318443,1854.137209 4979.715308,1859.072930 4999.830001,1881.257407"/>
    <poly id="125553894#1" type="landuse" color="194,194,130" fill="1" layer="-3.00" shape="4999.830001,1881.257407 5101.830719,1988.328998 5214.144854,1887.608594 5202.010104,1819.841236 5144.116749,1827.714495 5043.861273,1843.487846 4993.700175,1851.263835 4980.318443,1854.137209 4979.715308,1859.072930 4999.830001,1881.257407"/>
    <poly id="125553894#2" type="shop" color="237,199,255" fill="1" layer="-1.00" shape="4999.830001,1881.257407 5101.830719,1988.328998 5214.144854,1887.608594 5202.010104,1819.841236 5144.116749,1827.714495 5043.861273,1843.487846 4993.700175,1851.263835 4980.318443,1854.137209 4979.715308,1859.072930 4999.830001,1881.257407"/>
    <poly id="125566064" type="amenity" color="237,199,199" fill="1" layer="-1.00" shape="5061.576702,2024.893365 5033.882481,2050.328085 5011.496067,2024.523956 5038.632621,2001.014733 4988.010654,1948.950972 4976.070559,1937.382273 4971.284562,1958.175804 4966.351257,1987.070370 4961.377365,2002.883669 4943.202539,2049.813482 4964.510376,2068.545427 5006.559087,2028.871803 5029.992969,2054.100764 4976.723777,2097.201746 4926.601766,2049.974427 4957.068673,1992.899879 4969.120353,1930.651393 4969.676623,1896.620384 4978.959887,1888.544257 5086.551947,2000.996129 5061.576702,2024.893365"/>
    <poly id="125566064#1" type="landuse" color="194,194,130" fill="1" layer="-3.00" shape="5061.576702,2024.893365 5033.882481,2050.328085 5011.496067,2024.523956 5038.632621,2001.014733 4988.010654,1948.950972 4976.070559,1937.382273 4971.284562,1958.175804 4966.351257,1987.070370 4961.377365,2002.883669 4943.202539,2049.813482 4964.510376,2068.545427 5006.559087,2028.871803 5029.992969,2054.100764 4976.723777,2097.201746 4926.601766,2049.974427 4957.068673,1992.899879 4969.120353,1930.651393 4969.676623,1896.620384 4978.959887,1888.544257 5086.551947,2000.996129 5061.576702,2024.893365"/>
    <poly id="125566064#2" type="shop" color="237,199,255" fill="1" layer="-1.00" shape="5061.576702,2024.893365 5033.882481,2050.328085 5011.496067,2024.523956 5038.632621,2001.014733 4988.010654,1948.950972 4976.070559,1937.382273 4971.284562,1958.175804 4966.351257,1987.070370 4961.377365,2002.883669 4943.202539,2049.813482 4964.510376,2068.545427 5006.559087,2028.871803 5029.992969,2054.100764 4976.723777,2097.201746 4926.601766,2049.974427 4957.068673,1992.899879 4969.120353,1930.651393 4969.676623,1896.620384 4978.959887,1888.544257 5086.551947,2000.996129 5061.576702,2024.893365"/>
    <poly id="144913156" type="commercial" color="209,209,204" fill="1" layer="-3.00" shape="5253.544265,2350.766578 5255.823469,2366.349721 5238.163483,2368.911848 5235.873142,2353.317637 5253.544265,2350.766578"/>
    <poly id="202750049" type="amenity" color="237,199,199" fill="1" layer="-1.00" shape="5673.822960,2530.548356 5693.076423,2527.400186 5685.269681,2480.240803 5666.005079,2483.388977 5670.897995,2513.592637 5673.822960,2530.548356"/>
    <poly id="202750049#1" type="building" color="255,230,230" fill="1" layer="-1.00" shape="5673.822960,2530.548356 5693.076423,2527.400186 5685.269681,2480.240803 5666.005079,2483.388977 5670.897995,2513.592637 5673.822960,2530.548356"/>
    <poly id="229477266" type="building" color="255,230,230" fill="1" layer="-1.00" shape="5461.311229,1947.125085 5494.770004,1944.080758 5492.993235,1924.812403 5459.534457,1927.867802 5461.311229,1947.125085"/>
    <poly id="229477266#1" type="shop" color="237,199,255" fill="1" layer="-1.00" shape="5461.311229,1947.125085 5494.770004,1944.080758 5492.993235,1924.812403 5459.534457,1927.867802 5461.311229,1947.125085"/>
    <poly id="229477267" type="amenity" color="237,199,199" fill="1" layer="-1.00" shape="5580.823409,1808.667759 5571.809613,1809.771733 5572.798466,1818.791722 5570.414101,1819.078743 5570.136270,1816.754567 5565.233843,1817.328568 5565.500546,1819.608472 5547.829424,1822.015734 5547.607243,1819.879716 5535.741069,1821.514044 5531.293821,1827.433591 5536.829825,1831.751441 5537.918702,1841.590424 5534.117887,1846.757604 5539.208332,1850.743307 5548.790385,1849.495636 5548.590276,1848.056852 5571.041289,1845.009155 5571.230284,1846.359399 5574.528301,1845.906650 5574.317097,1844.312923 5578.027362,1843.816030 5578.316425,1845.841398 5586.227208,1844.759226 5584.870913,1834.997628 5587.166153,1834.688446 5591.378559,1831.646273 5590.611497,1826.046085 5585.832812,1822.713435 5582.713086,1823.077702 5580.823409,1808.667759"/>
    <poly id="229477267#1" type="building" color="255,230,230" fill="1" layer="-1.00" shape="5580.823409,1808.667759 5571.809613,1809.771733 5572.798466,1818.791722 5570.414101,1819.078743 5570.136270,1816.754567 5565.233843,1817.328568 5565.500546,1819.608472 5547.829424,1822.015734 5547.607243,1819.879716 5535.741069,1821.514044 5531.293821,1827.433591 5536.829825,1831.751441 5537.918702,1841.590424 5534.117887,1846.757604 5539.208332,1850.743307 5548.790385,1849.495636 5548.590276,1848.056852 5571.041289,1845.009155 5571.230284,1846.359399 5574.528301,1845.906650 5574.317097,1844.312923 5578.027362,1843.816030 5578.316425,1845.841398 5586.227208,1844.759226 5584.870913,1834.997628 5587.166153,1834.688446 5591.378559,1831.646273 5590.611497,1826.046085 5585.832812,1822.713435 5582.713086,1823.077702 5580.823409,1808.667759"/>
    <poly id="229477286" type="landuse" color="194,194,130" fill="1" layer="-3.00" shape="4795.658953,1711.980480 4785.005038,1720.985827 4775.618483,1739.132924 4764.979588,1735.311582 4757.307635,1757.343723 4756.907500,1791.009510 4767.016034,1816.997961 4794.395898,1872.662370 4807.455110,1904.517260 4805.459028,1947.014070 4804.932536,1956.376622 4862.089212,1952.409866 4865.777123,1952.078976 4869.018543,1954.492577 4872.694151,1957.979812 4883.397033,1971.208183 4889.867821,1979.023483 4897.429684,1989.417738 4901.559961,1999.899486 4902.770288,2013.324179 4903.680685,2023.827081 4911.234671,2023.497371 4922.094442,1997.150044 4930.468321,1975.239841 4934.251940,1953.295039 4936.560625,1945.371736 4938.292892,1927.786725 4935.054426,1878.957930 4925.513585,1854.696070 4921.405564,1844.258600 4904.847223,1814.704571 4896.199315,1821.840193 4863.621352,1786.515395 4862.574407,1785.364106 4839.563907,1760.002556 4848.033819,1751.959380 4839.557515,1744.298426 4826.421625,1744.814605 4795.658953,1711.980480"/>
    <poly id="267549809" type="building" color="255,230,230" fill="1" layer="-1.00" shape="5147.961159,2840.739505 5146.270744,2830.833955 5167.641137,2827.243810 5169.331555,2837.138295 5147.961159,2840.739505"/>
    <poly id="267549811" type="building" color="255,230,230" fill="1" layer="-1.00" shape="5284.379070,2869.755598 5301.931829,2960.898467 5339.904144,2953.683528 5322.351378,2862.540632 5284.379070,2869.755598"/>
    <poly id="303567355" type="amenity" color="237,199,199" fill="1" layer="-1.00" shape="5524.416588,2779.157712 5514.573929,2722.756718 5559.855309,2714.902083 5569.998376,2772.642310 5524.416588,2779.157712"/>
    <poly id="303897547" type="amenity" color="237,199,199" fill="1" layer="-1.00" shape="5653.611435,2316.714471 5700.363590,2308.683066 5704.229891,2308.020228 5699.158368,2278.768286 5698.257465,2273.699271 5697.200891,2267.623101 5646.303895,2276.339408 5647.983398,2285.647363 5652.143289,2308.491157 5653.611435,2316.714471"/>
    <poly id="330380021" type="amenity" color="237,199,199" fill="1" layer="-1.00" shape="5337.751585,1913.045115 5363.422720,1909.090907 5361.120924,1894.337784 5335.449790,1898.291994 5337.751585,1913.045115"/>
    <poly id="330380021#1" type="building" color="255,230,230" fill="1" layer="-1.00" shape="5337.751585,1913.045115 5363.422720,1909.090907 5361.120924,1894.337784 5335.449790,1898.291994 5337.751585,1913.045115"/>
    <poly id="360379421" type="building" color="255,230,230" fill="1" layer="-1.00" shape="5043.052056,2629.868353 5037.525699,2630.541733 5037.070281,2626.081568 5041.850227,2625.197683 5043.721504,2626.758718 5043.721001,2628.385575 5043.052056,2629.868353"/>
    <poly id="364715681" type="leisure" color="207,245,201" fill="1" layer="-2.00" shape="4868.262863,2674.193090 4927.481514,2703.594444 4948.863238,2663.317018 4892.664064,2633.352192 4868.262863,2674.193090"/>
    <poly id="364715681#1" type="sport" color="79,230,125" fill="1" layer="-2.00" shape="4868.262863,2674.193090 4927.481514,2703.594444 4948.863238,2663.317018 4892.664064,2633.352192 4868.262863,2674.193090"/>
    <poly id="398259911" type="building" color="255,230,230" fill="1" layer="-1.00" shape="5518.494104,2548.340470 5517.337486,2541.567048 5526.941937,2539.943156 5528.109700,2546.705514 5518.494104,2548.340470"/>
    <poly id="398260778" type="building" color="255,230,230" fill="1" layer="-1.00" shape="5436.754484,2674.978039 5428.365451,2673.403909 5427.466554,2661.927057 5444.225057,2656.310174 5445.812981,2673.409323 5436.754484,2674.978039"/>
    <poly id="398263249" type="unknown" color="51,128,255" fill="1" layer="-1.00" shape="5154.137471,2359.921672 5153.782568,2354.642572 5154.965146,2349.485683 5157.584800,2344.882589 5161.429720,2341.231639 5166.176716,2338.820478 5171.413490,2337.859253 5176.705498,2338.436367 5181.607100,2340.496349 5185.706113,2343.873065 5188.657241,2348.278666 5190.259972,2353.602419 5190.157987,2359.169123 5188.373732,2364.447566 5185.074483,2368.939781 5180.561184,2372.236379 5175.257309,2374.016545 5169.664268,2374.136562 5164.283432,2372.574450 5159.638404,2369.474242 5156.152475,2365.112746 5154.137471,2359.921672"/>
    <poly id="493361266" type="tourism" color="207,245,201" fill="1" layer="-2.00" shape="4972.007509,2144.943560 5054.045310,2133.680242 5054.647989,2130.271773 5020.589142,2092.113228 4985.762653,2123.278479 4977.692861,2134.398399 4972.007509,2144.943560"/>
    <poly id="493361328" type="building" color="255,230,230" fill="1" layer="-1.00" shape="5104.767146,2041.009106 5150.821460,2091.953789 5164.339715,2079.894815 5118.274246,2028.961194 5104.767146,2041.009106"/>
    <poly id="493361875" type="water" color="181,209,209" fill="1" layer="-4.00" shape="4942.558288,2116.436912 4951.642128,2104.719682 4959.261082,2110.554343 4950.188383,2122.271576 4942.558288,2116.436912"/>
    <poly id="493361876" type="amenity" color="237,199,199" fill="1" layer="-1.00" shape="4921.056467,2112.745019 4951.142673,2134.943638 4971.695864,2107.448300 4941.620789,2085.249686 4921.056467,2112.745019"/>
    <poly id="493361877" type="building" color="255,230,230" fill="1" layer="-1.00" shape="4931.710874,2102.245645 4939.312443,2092.033081 4945.193798,2096.351025 4937.603369,2106.563592 4931.710874,2102.245645"/>
    <poly id="493363585" type="building" color="255,230,230" fill="1" layer="-1.00" shape="5077.266482,2125.763326 5095.171532,2123.278710 5092.770196,2106.212568 5074.865147,2108.697187 5077.266482,2125.763326"/>
    <poly id="493363586" type="building" color="255,230,230" fill="1" layer="-1.00" shape="5097.266258,2122.836668 5116.720197,2119.611031 5113.928789,2102.943182 5094.463708,2106.168818 5097.266258,2122.836668"/>
    <poly id="493363587" type="building" color="255,230,230" fill="1" layer="-1.00" shape="5117.388572,2119.976448 5129.734015,2117.600803 5134.358937,2113.595939 5131.355455,2098.189668 5113.795507,2101.581892 5117.388572,2119.976448"/>
    <poly id="493363588" type="building" color="255,230,230" fill="1" layer="-1.00" shape="5052.150651,2099.227915 5067.329337,2085.963147 5071.550485,2090.734338 5056.382939,2103.999109 5052.150651,2099.227915"/>
    <poly id="493363589" type="leisure" color="207,245,201" fill="1" layer="-2.00" shape="5070.727603,2085.543636 5086.353347,2104.185336 5097.096411,2095.290701 5081.481805,2076.649004 5070.727603,2085.543636"/>
    <poly id="493363752" type="building" color="255,230,230" fill="1" layer="-1.00" shape="5306.428959,2290.577933 5310.911127,2316.088929 5304.333927,2328.260695 5295.534928,2283.048974 5337.039735,2273.665767 5347.018971,2321.356892 5333.629739,2312.244568 5329.125317,2286.633957 5306.428959,2290.577933"/>
    <poly id="493363753" type="building" color="255,230,230" fill="1" layer="-1.00" shape="5310.911127,2316.088929 5333.629739,2312.244568 5347.018971,2321.356892 5304.333927,2328.260695 5310.911127,2316.088929"/>
    <poly id="493363754" type="leisure" color="207,245,201" fill="1" layer="-2.00" shape="5308.077534,2291.751550 5312.103807,2314.318563 5331.535509,2311.059746 5327.654118,2288.348902 5308.077534,2291.751550"/>
    <poly id="493363755" type="building" color="255,230,230" fill="1" layer="-1.00" shape="5381.997325,2304.080858 5384.010967,2313.720909 5347.018971,2321.356892 5337.039735,2273.665767 5344.605264,2272.107632 5346.107152,2279.301697 5370.096236,2274.351010 5372.744018,2287.001501 5348.130971,2292.084799 5351.935756,2310.291320 5381.997325,2304.080858"/>
    <poly id="493365245" type="amenity" color="237,199,199" fill="1" layer="-1.00" shape="5252.187519,2451.144528 5254.222851,2462.665981 5262.586616,2509.980309 5302.397328,2502.511260 5316.848629,2499.804288 5305.714097,2441.267067 5252.187519,2451.144528"/>
    <poly id="493365245#1" type="building" color="255,230,230" fill="1" layer="-1.00" shape="5252.187519,2451.144528 5254.222851,2462.665981 5262.586616,2509.980309 5302.397328,2502.511260 5316.848629,2499.804288 5305.714097,2441.267067 5252.187519,2451.144528"/>
    <poly id="493366008" type="parking" color="184,184,179" fill="1" layer="-1.00" shape="5575.270810,2549.132736 5598.000597,2545.343753 5601.370281,2565.320921 5579.966312,2569.165646 5578.684978,2569.375524 5575.270810,2549.132736"/>
    <poly id="493366029" type="leisure" color="207,245,201" fill="1" layer="-2.00" shape="5072.149275,2499.263932 5076.064739,2519.739200 5115.218018,2512.358491 5111.302553,2491.883217 5072.149275,2499.263932"/>
    <poly id="574143147" type="landuse" color="194,194,130" fill="1" layer="-3.00" shape="5413.153457,1778.060638 5501.019795,1762.648682 5474.511171,1625.441882 5389.833433,1633.849430 5413.153457,1778.060638"/>
    <poly id="574143148" type="landuse" color="194,194,130" fill="1" layer="-3.00" shape="5342.625097,1787.534814 5402.992259,1778.644113 5379.003598,1634.930733 5316.654138,1640.943463 5342.625097,1787.534814"/>
    <poly id="574143149" type="landuse" color="194,194,130" fill="1" layer="-3.00" shape="5424.004345,1854.460048 5414.510014,1786.970056 5502.386637,1774.391286 5511.880975,1841.881325 5424.004345,1854.460048"/>
    <poly id="574143151" type="landuse" color="194,194,130" fill="1" layer="-3.00" shape="5425.870166,1874.027230 5496.632094,1866.036163 5520.572062,1876.125567 5533.623903,1968.938230 5444.264758,1983.751966 5425.870166,1874.027230"/>
    <poly id="574143152" type="landuse" color="194,194,130" fill="1" layer="-3.00" shape="5344.666252,1999.945951 5435.262305,1984.225106 5418.983789,1877.146056 5328.388301,1891.063043 5344.666252,1999.945951"/>
    <poly id="574143153" type="landuse" color="194,194,130" fill="1" layer="-3.00" shape="5223.761688,1881.812370 5409.029333,1857.344009 5399.535142,1789.400274 5395.936284,1789.941470 5355.178925,1796.115610 5215.625746,1817.244604 5223.761688,1881.812370"/>
    <poly id="574143154" type="landuse" color="194,194,130" fill="1" layer="-3.00" shape="5244.099215,2013.859808 5335.151172,2000.839484 5320.232617,1891.503247 5231.744287,1900.971899 5227.264340,1904.534134 5244.099215,2013.859808"/>
    <poly id="574143155" type="landuse" color="194,194,130" fill="1" layer="-3.00" shape="5261.625978,2119.212643 5347.697903,2105.582183 5334.568120,2012.957761 5247.304072,2026.587921 5261.625978,2119.212643"/>
    <poly id="574143156" type="landuse" color="194,194,130" fill="1" layer="-3.00" shape="5216.369123,2120.128441 5250.272477,2120.393349 5234.524395,2028.000608 5140.632224,2038.463553 5187.944659,2092.275006 5216.369123,2120.128441"/>
    <poly id="574143157" type="landuse" color="194,194,130" fill="1" layer="-3.00" shape="5116.944506,2005.233006 5134.630500,2026.940908 5232.969003,2013.535470 5219.474124,1912.234448 5116.944506,2005.233006"/>
    <poly id="574143158" type="landuse" color="194,194,130" fill="1" layer="-3.00" shape="5360.299656,2103.095942 5453.536159,2087.685856 5439.603851,1996.123553 5347.726668,2011.379181 5360.299656,2103.095942"/>
    <poly id="574143159" type="landuse" color="194,194,130" fill="1" layer="-3.00" shape="5376.376852,2212.056314 5472.376556,2196.315143 5457.833024,2099.927374 5358.713965,2114.881901 5376.376852,2212.056314"/>
    <poly id="574143160" type="landuse" color="194,194,130" fill="1" layer="-3.00" shape="5278.215519,2228.648972 5368.354318,2214.278338 5351.170519,2117.093011 5312.496777,2122.769664 5266.603064,2129.495479 5262.391405,2130.113947 5278.215519,2228.648972"/>
    <poly id="574143161" type="landuse" color="194,194,130" fill="1" layer="-3.00" shape="5183.988010,2242.575657 5267.341183,2229.553138 5253.776724,2137.758661 5192.900447,2135.781170 5169.763217,2160.586460 5183.988010,2242.575657"/>
    <poly id="574143163" type="building" color="255,230,230" fill="1" layer="-1.00" shape="5558.050689,2281.314616 5556.727200,2273.677909 5550.365080,2274.771597 5545.882979,2249.006010 5557.103030,2247.105914 5583.565444,2242.543326 5589.695041,2273.012946 5588.446243,2276.111351 5558.050689,2281.314616"/>
    <poly id="574143163#1" type="tourism" color="207,245,201" fill="1" layer="-2.00" shape="5558.050689,2281.314616 5556.727200,2273.677909 5550.365080,2274.771597 5545.882979,2249.006010 5557.103030,2247.105914 5583.565444,2242.543326 5589.695041,2273.012946 5588.446243,2276.111351 5558.050689,2281.314616"/>
    <poly id="574143164" type="amenity" color="237,199,199" fill="1" layer="-1.00" shape="5538.273433,2285.004950 5558.050689,2281.314616 5556.727200,2273.677909 5550.365080,2274.771597 5545.882979,2249.006010 5537.849580,2250.287327 5531.899693,2251.392210 5538.273433,2285.004950"/>
    <poly id="574143164#1" type="building" color="255,230,230" fill="1" layer="-1.00" shape="5538.273433,2285.004950 5558.050689,2281.314616 5556.727200,2273.677909 5550.365080,2274.771597 5545.882979,2249.006010 5537.849580,2250.287327 5531.899693,2251.392210 5538.273433,2285.004950"/>
    <poly id="574143165" type="building" color="255,230,230" fill="1" layer="-1.00" shape="5500.189704,2292.065121 5491.078990,2245.990001 5535.491502,2237.537305 5536.225592,2241.599156 5537.849580,2250.287327 5531.899693,2251.392210 5538.273433,2285.004950 5500.189704,2292.065121"/>
    <poly id="574143169" type="amenity" color="237,199,199" fill="1" layer="-1.00" shape="5557.324130,2216.439044 5556.365855,2216.792897 5555.574616,2217.423479 5555.028422,2218.275478 5554.783008,2219.260375 5554.860689,2220.267505 5555.250356,2221.197261 5555.929755,2221.950033 5556.843196,2222.470467 5557.890437,2222.658929 5558.937787,2222.493244 5559.873824,2221.995511 5560.587116,2221.221033 5560.999650,2220.247255 5561.066821,2219.195901 5560.777455,2218.177638 5560.176077,2217.325287 5559.318373,2216.705266 5558.338012,2216.417221 5557.324130,2216.439044"/>
    <poly id="574143171" type="building" color="255,230,230" fill="1" layer="-1.00" shape="5537.876000,2200.496454 5537.141875,2196.545274 5541.665572,2195.705562 5542.410839,2199.656745 5537.876000,2200.496454"/>
    <poly id="574143171#1" type="shop" color="237,199,255" fill="1" layer="-1.00" shape="5537.876000,2200.496454 5537.141875,2196.545274 5541.665572,2195.705562 5542.410839,2199.656745 5537.876000,2200.496454"/>
    <poly id="574143193" type="landuse" color="194,194,130" fill="1" layer="-3.00" shape="5393.503118,2314.941206 5487.698584,2297.041475 5472.496062,2206.264497 5377.788750,2222.061392 5393.503118,2314.941206"/>
    <poly id="574143194" type="landuse" color="194,194,130" fill="1" layer="-3.00" shape="5281.176138,2238.455311 5290.433064,2280.048229 5341.241240,2269.837847 5350.494381,2323.715249 5385.168910,2316.222426 5368.719482,2222.445959 5281.176138,2238.455311"/>
    <poly id="574143196" type="landuse" color="194,194,130" fill="1" layer="-3.00" shape="5410.785562,2416.907607 5505.036297,2400.490958 5490.469187,2308.828783 5395.438442,2325.643675 5410.785562,2416.907607"/>
    <poly id="574143197" type="landuse" color="194,194,130" fill="1" layer="-3.00" shape="5314.418585,2431.497519 5401.315592,2416.019321 5386.925504,2328.441030 5299.382354,2343.764150 5314.418585,2431.497519"/>
    <poly id="574143198" type="landuse" color="194,194,130" fill="1" layer="-3.00" shape="5217.906469,2447.304751 5304.423978,2433.840659 5289.811546,2344.735109 5203.582896,2360.899716 5217.906469,2447.304751"/>
    <poly id="574143199" type="landuse" color="194,194,130" fill="1" layer="-3.00" shape="5202.327575,2348.991162 5287.029430,2334.176261 5271.115223,2239.049847 5182.714427,2253.852609 5202.327575,2348.991162"/>
    <poly id="574143200" type="building" color="255,230,230" fill="1" layer="-1.00" shape="5429.461960,2514.491899 5449.417362,2511.133671 5447.393223,2499.457263 5442.123030,2500.363137 5435.616930,2462.611280 5430.245221,2431.433628 5450.568318,2427.986963 5465.398391,2425.457172 5473.873010,2474.653019 5471.143207,2475.116994 5473.412012,2488.243268 5449.712866,2492.275437 5450.691281,2498.860659 5452.871384,2510.592451 5525.974408,2498.153492 5510.593268,2409.003269 5509.991744,2408.626802 5508.254060,2407.375685 5507.218112,2406.700272 5413.335180,2422.674346 5429.461960,2514.491899"/>
    <poly id="574143200#1" type="historic" color="128,255,128" fill="1" layer="-1.00" shape="5429.461960,2514.491899 5449.417362,2511.133671 5447.393223,2499.457263 5442.123030,2500.363137 5435.616930,2462.611280 5430.245221,2431.433628 5450.568318,2427.986963 5465.398391,2425.457172 5473.873010,2474.653019 5471.143207,2475.116994 5473.412012,2488.243268 5449.712866,2492.275437 5450.691281,2498.860659 5452.871384,2510.592451 5525.974408,2498.153492 5510.593268,2409.003269 5509.991744,2408.626802 5508.254060,2407.375685 5507.218112,2406.700272 5413.335180,2422.674346 5429.461960,2514.491899"/>
    <poly id="574143203" type="commercial" color="209,209,204" fill="1" layer="-3.00" shape="5542.481945,1967.081658 5636.141505,1953.154586 5621.082521,1865.808389 5529.506276,1880.245244 5542.481945,1967.081658"/>
    <poly id="574143205" type="commercial" color="209,209,204" fill="1" layer="-3.00" shape="5561.189889,2072.003485 5655.361973,2058.076648 5638.744675,1966.070696 5545.608604,1980.518071 5561.189889,2072.003485"/>
    <poly id="574143206" type="commercial" color="209,209,204" fill="1" layer="-3.00" shape="5578.327114,2175.884554 5612.678116,2169.974182 5671.463530,2160.408082 5657.185588,2069.819409 5561.765131,2085.461256 5578.327114,2175.884554"/>
    <poly id="574143207" type="commercial" color="209,209,204" fill="1" layer="-3.00" shape="5597.938937,2275.616249 5695.254368,2257.086610 5678.146005,2168.300981 5579.103707,2186.686285 5597.938937,2275.616249"/>
    <poly id="574143208" type="amenity" color="237,199,199" fill="1" layer="-1.00" shape="5635.244714,2370.937651 5633.087112,2358.453288 5631.741109,2351.580200 5631.396357,2349.521611 5626.780954,2322.516448 5626.591907,2321.354343 5644.107211,2318.460150 5653.611435,2316.714471 5700.363590,2308.683066 5704.229891,2308.020228 5710.547093,2344.289108 5712.760330,2357.016972 5635.244714,2370.937651"/>
    <poly id="574143211" type="landuse" color="194,194,130" fill="1" layer="-3.00" shape="5446.476109,2618.837699 5539.100413,2601.812006 5524.019889,2513.558289 5429.179486,2527.230033 5446.476109,2618.837699"/>
    <poly id="574143213" type="building" color="255,230,230" fill="1" layer="-1.00" shape="5549.890394,2585.557778 5561.277573,2583.646696 5563.212713,2594.869337 5582.689098,2591.367099 5578.684978,2569.375524 5575.270810,2549.132736 5598.000597,2545.343753 5601.370281,2565.320921 5618.952453,2562.360380 5617.773584,2555.487342 5613.981610,2531.990701 5601.246219,2534.189115 5598.944000,2521.040682 5611.679391,2518.842266 5607.308867,2492.711478 5548.968947,2502.886249 5555.419398,2540.416784 5543.018287,2542.515696 5549.890394,2585.557778"/>
    <poly id="574143214" type="commercial" color="209,209,204" fill="1" layer="-3.00" shape="5464.761167,2720.383948 5557.039794,2704.354260 5542.472664,2613.477774 5448.622861,2630.292805 5464.761167,2720.383948"/>
    <poly id="574143215" type="amenity" color="237,199,199" fill="1" layer="-1.00" shape="5561.772254,2677.064257 5593.917057,2671.762027 5586.922052,2629.915134 5554.777249,2635.228442 5561.772254,2677.064257"/>